MolPort-008-345-391 44932693 ZINC44932693


 33 35  0  0  0  0  0  0  0  0999 V2000
   -8.8273  -20.1957   -7.4531 C   0  0  0  0  0  0  0  0  0  0  0  0
   -7.9782  -21.1359   -7.0105 N   0  0  0  0  0  0  0  0  0  0  0  0
   -8.6816  -21.8869   -6.2067 O   0  0  0  0  0  0  0  0  0  0  0  0
   -9.9297  -21.5201   -6.0936 N   0  0  0  0  0  0  0  0  0  0  0  0
  -10.0606  -20.4499   -6.8928 C   0  0  0  0  0  0  0  0  0  0  0  0
   -8.3921  -19.2306   -9.6015 N   0  0  0  0  0  0  0  0  0  0  0  0
   -8.8307  -20.3777  -10.2283 O   0  0  0  0  0  0  0  0  0  0  0  0
   -8.4425  -19.1279   -8.3282 N   0  0  0  0  0  0  0  0  0  0  0  0
  -10.1799  -15.8140  -11.9262 C   0  0  0  0  0  0  0  0  0  0  0  0
   -8.6511  -15.8965  -12.0109 C   0  0  0  0  0  0  0  0  0  0  0  0
   -8.2094  -14.7570  -12.9052 C   0  0  0  0  0  0  0  0  0  0  0  0
   -8.0355  -15.7017  -10.7470 O   0  0  0  0  0  0  0  0  0  0  0  0
   -8.3748  -16.7554   -9.8718 C   0  0  0  0  0  0  0  0  0  0  0  0
   -7.9242  -18.1122  -10.4325 C   0  0  0  0  0  0  0  0  0  0  0  0
   -8.5645  -18.2080  -11.8163 C   0  0  0  0  0  0  0  0  0  0  0  0
   -8.2142  -17.1021  -12.6194 O   0  0  0  0  0  0  0  0  0  0  0  0
   -6.4608  -18.1640  -10.5366 N   0  0  0  0  0  0  0  0  0  0  0  0
   -5.6760  -17.6402   -9.5342 O   0  0  0  0  0  0  0  0  0  0  0  0
   -5.9212  -18.8711  -11.4135 O   0  0  0  0  0  0  0  0  0  0  0  0
  -11.3030  -19.7655   -7.1034 N   0  0  0  0  0  0  0  0  0  0  0  0
  -12.4529  -20.2993   -6.9422 N   0  0  0  0  0  0  0  0  0  0  0  0
  -12.5688  -21.5442   -6.3590 O   0  0  0  0  0  0  0  0  0  0  0  0
  -13.6611  -19.4972   -7.1660 C   0  0  0  0  0  0  0  0  0  0  0  0
  -13.6817  -18.3421   -6.1653 C   0  0  0  0  0  0  0  0  0  0  0  0
  -14.8966  -17.6258   -6.2307 O   0  0  0  0  0  0  0  0  0  0  0  0
  -15.9925  -18.4877   -5.9642 C   0  0  0  0  0  0  0  0  0  0  0  0
  -15.9688  -19.0230   -4.5274 C   0  0  0  0  0  0  0  0  0  0  0  0
  -17.2546  -17.6609   -6.0924 C   0  0  0  0  0  0  0  0  0  0  0  0
  -16.0748  -19.5314   -6.9225 O   0  0  0  0  0  0  0  0  0  0  0  0
  -14.9111  -20.3277   -6.8758 C   0  0  0  0  0  0  0  0  0  0  0  0
  -13.7020  -19.0107   -8.5532 N   0  0  0  0  0  0  0  0  0  0  0  0
  -13.5631  -17.6710   -8.8394 O   0  0  0  0  0  0  0  0  0  0  0  0
  -13.7561  -19.8267   -9.4967 O   0  0  0  0  0  0  0  0  0  0  0  0
  9 10  1  0  0  0
 10 11  1  0  0  0
 10 12  1  0  0  0
 12 13  1  0  0  0
 13 14  1  0  0  0
 14 15  1  0  0  0
 14 17  1  0  0  0
 14  6  1  0  0  0
 15 16  1  0  0  0
 16 10  1  0  0  0
 17 18  1  0  0  0
 17 19  2  0  0  0
  6  7  1  0  0  0
  6  8  2  0  0  0
  8  1  1  0  0  0
  1  2  2  0  0  0
  2  3  1  0  0  0
  3  4  1  0  0  0
  4  5  2  0  0  0
  5 20  1  0  0  0
  5  1  1  0  0  0
 20 21  2  0  0  0
 21 22  1  0  0  0
 21 23  1  0  0  0
 23 24  1  0  0  0
 23 31  1  0  0  0
 24 25  1  0  0  0
 25 26  1  0  0  0
 26 27  1  0  0  0
 26 28  1  0  0  0
 26 29  1  0  0  0
 29 30  1  0  0  0
 30 23  1  0  0  0
 31 32  1  0  0  0
 31 33  2  0  0  0
M  CHG 1   6   1
M  CHG 1   7  -1
M  CHG 1  17   1
M  CHG 1  18  -1
M  CHG 1  21   1
M  CHG 1  22  -1
M  CHG 1  31   1
M  CHG 1  32  -1
M  END
>  <minimizedAffinity>
-4.88996

>  <minimizedRMSD>
4.77610

$$$$
MolPort-003-086-093 MCULE-3563134743 PubChem-4053890


 32 33  0  0  0  0  0  0  0  0999 V2000
  -13.5362  -20.4846   -6.6442 N   0  0  0  0  0  0  0  0  0  0  0  0
  -14.5995  -21.4500   -6.9748 C   0  0  0  0  0  0  0  0  0  0  0  0
  -14.8673  -21.5782   -8.4809 C   0  0  0  0  0  0  0  0  0  0  0  0
  -13.5776  -21.4468   -9.2911 C   0  0  0  0  0  0  0  0  0  0  0  0
  -12.4546  -21.5866   -8.4643 O   0  0  0  0  0  0  0  0  0  0  0  0
  -12.4529  -20.4440   -7.6451 C   0  0  0  0  0  0  0  0  0  0  0  0
  -14.2266  -18.8942   -6.4791 S   0  0  0  0  0  0  0  0  0  0  0  0
  -14.1698  -18.4841   -5.0337 O   0  0  0  0  0  0  0  0  0  0  0  0
  -13.3896  -17.9116   -7.2501 O   0  0  0  0  0  0  0  0  0  0  0  0
  -19.9670  -18.7558   -8.5183 C   0  0  0  0  0  0  0  0  0  0  0  0
  -18.5680  -18.7872   -8.0191 C   0  0  0  0  0  0  0  0  0  0  0  0
  -17.5163  -18.4611   -8.8707 C   0  0  0  0  0  0  0  0  0  0  0  0
  -16.1968  -18.4873   -8.4134 C   0  0  0  0  0  0  0  0  0  0  0  0
  -15.1317  -18.1366   -9.3959 C   0  0  0  0  0  0  0  0  0  0  0  0
  -15.9122  -18.8449   -7.0710 C   0  0  0  0  0  0  0  0  0  0  0  0
  -16.9951  -19.1825   -6.2192 C   0  0  0  0  0  0  0  0  0  0  0  0
  -16.8051  -19.6046   -4.8022 C   0  0  0  0  0  0  0  0  0  0  0  0
  -18.3060  -19.1492   -6.7008 C   0  0  0  0  0  0  0  0  0  0  0  0
  -11.1014  -20.2975   -6.9588 C   0  0  0  0  0  0  0  0  0  0  0  0
  -10.2145  -19.4583   -7.7515 N   0  0  0  0  0  0  0  0  0  0  0  0
   -8.7973  -19.6401   -7.7489 C   0  0  0  0  0  0  0  0  0  0  0  0
   -8.2753  -20.5513   -7.0510 O   0  0  0  0  0  0  0  0  0  0  0  0
  -10.6030  -18.7438   -8.3062 H   0  0  0  0  0  0  0  0  0  0  0  0
   -7.9463  -18.7610   -8.5581 C   0  0  0  0  0  0  0  0  0  0  0  0
   -6.6923  -18.8180   -8.4401 O   0  0  0  0  0  0  0  0  0  0  0  0
   -8.5415  -17.8446   -9.4785 N   0  0  0  0  0  0  0  0  0  0  0  0
   -9.5226  -17.8139   -9.5540 H   0  0  0  0  0  0  0  0  0  0  0  0
   -7.7426  -16.9558  -10.3075 C   0  0  0  0  0  0  0  0  0  0  0  0
   -8.6375  -16.1880  -11.2666 C   0  0  0  0  0  0  0  0  0  0  0  0
   -8.7154  -16.8808  -12.6176 C   0  0  0  0  0  0  0  0  0  0  0  0
   -8.8663  -18.2571  -12.4456 O   0  0  0  0  0  0  0  0  0  0  0  0
   -8.1046  -18.6074  -11.9578 H   0  0  0  0  0  0  0  0  0  0  0  0
 10 11  1  0  0  0
 11 12  2  0  0  0
 12 13  1  0  0  0
 13 14  1  0  0  0
 13 15  2  0  0  0
 15 16  1  0  0  0
 15  7  1  0  0  0
 16 17  1  0  0  0
 16 18  2  0  0  0
 18 11  1  0  0  0
  7  8  2  0  0  0
  7  9  2  0  0  0
  7  1  1  0  0  0
  1  2  1  0  0  0
  2  3  1  0  0  0
  3  4  1  0  0  0
  4  5  1  0  0  0
  5  6  1  0  0  0
  6 19  1  0  0  0
  6  1  1  0  0  0
 19 20  1  0  0  0
 20 21  1  0  0  0
 21 22  2  0  0  0
 21 24  1  0  0  0
 24 25  2  0  0  0
 24 26  1  0  0  0
 26 28  1  0  0  0
 28 29  1  0  0  0
 29 30  1  0  0  0
 30 31  1  0  0  0
 20 23  1  0  0  0
 26 27  1  0  0  0
 31 32  1  0  0  0
M  END
>  <minimizedAffinity>
-4.83104

>  <minimizedRMSD>
4.51160

$$$$
MolPort-007-890-806 ChemDiv-G862-0343 MCULE-8972219873 PubChem-22585039 ZINC000015824196 ZINC15824196


 31 34  0  0  0  0  0  0  0  0999 V2000
   -6.6498  -19.5972   -8.9499 C   0  0  0  0  0  0  0  0  0  0  0  0
   -6.8650  -19.6129   -7.5626 C   0  0  0  0  0  0  0  0  0  0  0  0
   -8.1260  -19.6261   -7.0577 N   0  0  0  0  0  0  0  0  0  0  0  0
   -9.2157  -19.6241   -7.8682 C   0  0  0  0  0  0  0  0  0  0  0  0
   -9.0540  -19.6086   -9.2540 C   0  0  0  0  0  0  0  0  0  0  0  0
   -7.7724  -19.6065   -9.8098 C   0  0  0  0  0  0  0  0  0  0  0  0
   -5.0760  -19.4379  -10.8573 C   0  0  0  0  0  0  0  0  0  0  0  0
   -5.3507  -19.5551   -9.4676 O   0  0  0  0  0  0  0  0  0  0  0  0
  -10.5828  -19.6115   -7.2766 C   0  0  0  0  0  0  0  0  0  0  0  0
  -11.8469  -19.6251   -8.5858 S   0  0  0  0  0  0  0  0  0  0  0  0
  -13.1159  -18.9613   -7.5080 C   0  0  0  0  0  0  0  0  0  0  0  0
  -12.9346  -18.6680   -6.2079 N   0  0  0  0  0  0  0  0  0  0  0  0
  -14.1093  -18.2062   -5.7950 N   0  0  0  0  0  0  0  0  0  0  0  0
  -14.9787  -18.2110   -6.7961 N   0  0  0  0  0  0  0  0  0  0  0  0
  -14.3738  -18.6769   -7.8718 N   0  0  0  0  0  0  0  0  0  0  0  0
  -14.9934  -18.8423   -9.1743 C   0  0  0  0  0  0  0  0  0  0  0  0
   -7.6782  -19.6027  -11.2102 O   0  0  0  0  0  0  0  0  0  0  0  0
   -8.6159  -18.9916  -12.0908 C   0  0  0  0  0  0  0  0  0  0  0  0
   -7.9449  -17.9580  -12.9320 C   0  0  0  0  0  0  0  0  0  0  0  0
   -8.2742  -16.7500  -12.7995 O   0  0  0  0  0  0  0  0  0  0  0  0
   -6.9677  -18.3596  -13.9016 N   0  0  0  0  0  0  0  0  0  0  0  0
   -6.8093  -19.3269  -13.9942 H   0  0  0  0  0  0  0  0  0  0  0  0
   -6.1974  -17.4979  -14.7502 C   0  0  0  0  0  0  0  0  0  0  0  0
   -4.7878  -17.5379  -14.6531 C   0  0  0  0  0  0  0  0  0  0  0  0
   -3.9846  -16.7079  -15.4560 C   0  0  0  0  0  0  0  0  0  0  0  0
   -4.6311  -15.8517  -16.3422 C   0  0  0  0  0  0  0  0  0  0  0  0
   -4.0736  -14.9485  -17.2249 O   0  0  0  0  0  0  0  0  0  0  0  0
   -5.1423  -14.2953  -17.9255 C   0  0  0  0  0  0  0  0  0  0  0  0
   -6.3432  -14.8724  -17.3939 O   0  0  0  0  0  0  0  0  0  0  0  0
   -5.9833  -15.8055  -16.4419 C   0  0  0  0  0  0  0  0  0  0  0  0
   -6.8095  -16.6114  -15.6636 C   0  0  0  0  0  0  0  0  0  0  0  0
  7  8  1  0  0  0
  8  1  1  0  0  0
  1  2  2  0  0  0
  2  3  1  0  0  0
  3  4  2  0  0  0
  4  9  1  0  0  0
  4  5  1  0  0  0
  9 10  1  0  0  0
 10 11  1  0  0  0
 11 12  2  0  0  0
 12 13  1  0  0  0
 13 14  2  0  0  0
 14 15  1  0  0  0
 15 16  1  0  0  0
 15 11  1  0  0  0
  5  6  2  0  0  0
  6 17  1  0  0  0
  6  1  1  0  0  0
 17 18  1  0  0  0
 18 19  1  0  0  0
 19 20  2  0  0  0
 19 21  1  0  0  0
 21 23  1  0  0  0
 23 24  2  0  0  0
 24 25  1  0  0  0
 25 26  2  0  0  0
 26 27  1  0  0  0
 27 28  1  0  0  0
 28 29  1  0  0  0
 29 30  1  0  0  0
 30 31  2  0  0  0
 30 26  1  0  0  0
 31 23  1  0  0  0
 21 22  1  0  0  0
M  END
>  <minimizedAffinity>
-4.36832

>  <minimizedRMSD>
4.74305

$$$$
